myETL/UCT_Source/20221102_1230_FO3_BG0.uct
##C 2007.05.01
ESO.BG DATA SET
##N
##ZBG
VBELME21 VBELME21     0 0 228.95     0.0     0.0     0.0     0.0   108.7  -348.2    88.2   -91.9
VKAZIC21 VKAZIC21     0 0 228.40   111.8    60.3     0.0     0.0     0.0     0.0     0.0     0.0
VSF_YU21 VSF_YU21     0 0 228.56   123.4     7.9     0.0     0.0     0.0     0.0     0.0     0.0
VTSOF_21 VTSOF_21     0 0 228.28    41.0    28.0     0.0     0.0     0.0     0.0     0.0     0.0
VMETAL11 VMETAL11     0 0 407.41    35.4    -8.2     0.0     0.0     0.0     0.0     0.0     0.0
VSOFIZ51 VSOFIZ51     0 0 113.99   149.1    52.6     0.0     0.0     0.0     0.0     0.0     0.0
VCMOGL51 VCMOGL51     0 0 111.63    69.4    39.9     0.0     0.0     0.0     0.0     0.0     0.0
VTBDOL51 VTBDOL51     0 2 118.00   110.4     5.6  -124.3     1.4  -121.3  -166.3    31.6   -93.4
VBLAGO51 VBLAGO51     0 0 117.78    46.5    -1.2     0.0     0.0     0.0     0.0     0.0     0.0
VSTOLN51 VSTOLN51     0 0 118.38    56.8     5.8     0.0     0.0     0.0     0.0     0.0     0.0
VSTOMA21 VSTOMA21     0 0 231.02    11.9   -20.9     0.0     0.0     0.0     0.0     0.0     0.0
VTBDOL21 VTBDOL21     0 2 230.01     0.0     0.0  -132.3     5.0  -121.3  -332.5    26.5  -183.5
VSTOLN21 VSTOLN21     0 0 229.28     0.0     0.0     0.0     0.0     0.0     0.0     0.0     0.0
VHSEST21 VHSEST21     0 0 229.88     0.0     0.0     0.0     0.0   -29.4  -238.7    90.2   -49.8
VSTOLN11 VSTOLN11     0 0 407.19     0.0     0.0     0.0     0.0     0.0     0.0     0.0     0.0
VZLATI11 VZLATI11     0 0 408.60    98.3    50.3     0.0     0.0     0.0     0.0     0.0     0.0
VSOFIZ11 VSOFIZ11     0 0 407.70     0.0     0.0     0.0     0.0     0.0     0.0     0.0     0.0
VCMOGL11 VCMOGL11     0 0 408.42     0.0     0.0     0.0     0.0     0.0     0.0     0.0     0.0
VBLAGO11 VBLAGO11     0 0 406.89     0.0     0.0     0.0     0.0     0.0     0.0     0.0     0.0
VHCHAI11 VHCHAI11     0 0 413.48     0.0     0.0    -0.0    -0.0   390.6  -421.4   190.4  -129.6
VHCHAI12 VHCHAI12     0 0 413.46     0.0     0.0     0.0     0.0   390.6  -421.4   190.4  -129.6
VBOICH21 VBOICH21     0 0 235.99    32.9     0.1     0.0     0.0     0.0     0.0     0.0     0.0
VAECKO21 VAECKO21     0 0 236.30    37.9     3.3     0.0     0.0     0.0     0.0     0.0     0.0
VAECKO11 VAECKO11     0 2 412.00     0.0     0.0 -1045.3   -43.4  -537.3 -2002.6   322.8  -537.2
VCAREV51 VCAREV51     0 0 117.75    47.2    -0.4     0.0     0.0     0.0     0.0     0.0     0.0
VGORYA51 VGORYA51     0 0 117.79    48.6    14.3     0.0     0.0     0.0     0.0     0.0     0.0
VKARTA51 VKARTA51     0 0 117.77     0.2    -0.4     0.0     0.0     0.0     0.0     0.0     0.0
VO_DEK51 VO_DEK51     0 0 117.77     0.0     0.0     0.0     0.0     0.0     0.0     0.0     0.0
VO_POK51 VO_POK51     0 0 117.76     6.6     0.7     0.0     0.0     0.0     0.0     0.0     0.0
VCALIV51 VCALIV51     0 0 117.74     0.9     0.0     0.0     0.0     0.0     0.0     0.0     0.0
VDRIAN51 VDRIAN51     0 0 117.68    12.3     5.0     0.0     0.0     0.0     0.0     0.0     0.0
VGABRO51 VGABRO51     0 0 117.77     0.0     0.0     0.0     0.0     0.0     0.0     0.0     0.0
VBALKA51 VBALKA51     0 0 117.78    27.8     8.4     0.0     0.0     0.0     0.0     0.0     0.0
VBALKA52 VBALKA52     0 0 117.79     0.0     0.0     0.0     0.0     0.0     0.0     0.0     0.0
VGORYA21 VGORYA21     0 0 225.94    50.6    16.6     0.0     0.0     0.0     0.0     0.0     0.0
VBALKA21 VBALKA21     0 0 225.31     0.0     0.0     0.0     0.0     0.0     0.0     0.0     0.0
VCAREV11 VCAREV11     0 0 409.40     0.0     0.0     0.0     0.0     0.0     0.0     0.0     0.0
VDOBRU51 VDOBRU51     0 0 116.30   102.7    34.3     0.0     0.0     0.0     0.0     0.0     0.0
VTVARN51 VTVARN51     0 0 115.32    64.4    15.1     0.0     0.0  -117.1  -576.5   113.7  -276.3
VAGROP51 VAGROP51     0 0 115.46     6.2     8.7     0.0     0.0     0.0     0.0     0.0     0.0
VBELOS51 VBELOS51     0 0 115.14     9.4     7.7     0.0     0.0     0.0     0.0     0.0     0.0
VDOBRU21 VDOBRU21     0 0 223.10     0.0     0.0     0.0     0.0     0.0     0.0     0.0     0.0
VMADAR21 VMADAR21     0 0 221.64    87.6    70.2     0.0     0.0     0.0     0.0     0.0     0.0
VTVARN21 VTVARN21     0 0 222.69     0.0     0.0     0.0     0.0  -116.9  -575.7   122.0  -268.0
VVARNA21 VVARNA21     0 0 224.20     0.0     0.0     0.0     0.0     0.0     0.0     0.0     0.0
VVARNA11 VVARNA11     0 0 400.81     0.0     0.0     0.0     0.0     0.0     0.0     0.0     0.0
VDOBRU11 VDOBRU11     0 0 400.47     0.0     0.0     0.0     0.0     0.0     0.0     0.0     0.0
VTMI2_51 VTMI2_51     0 2 120.00   106.9    15.1  -131.2    13.2   -47.2  -159.2    58.1   -71.9
VMA_IZ51 VMA_IZ51     0 0 118.93    48.5     7.5     0.0     0.0   -15.8  -164.6    71.0   -89.0
VBURGA51 VBURGA51     0 0 115.47   130.2    29.2     0.0     0.0     0.0     0.0     0.0     0.0
VTMI2_21 VTMI2_21     0 2 227.00    71.9    30.6  -725.2    47.8   -47.9  -875.2   363.1  -336.9
VMA_IZ21 VMA_IZ21     0 0 227.26     0.0     0.0     0.0     0.0     0.0     0.0     0.0     0.0
VTMI3_21 VTMI3_21     0 2 227.00    44.6     6.7  -540.5    87.2  -127.2  -828.7   318.1  -361.9
VO_KAK21 VO_KAK21     0 0 227.95     0.0     0.0     0.0     0.0     0.0     0.0     0.0     0.0
VO_SPT21 VO_SPT21     0 0 226.46     2.7     4.9     0.0     0.0     0.0     0.0     0.0     0.0
VBURGA11 VBURGA11     0 0 404.79     0.0     0.0     0.0     0.0     0.0     0.0     0.0     0.0
VTMI3_11 VTMI3_11     0 0 409.65     0.0     0.0     0.0     0.0     0.0     0.0     0.0     0.0
VMA_IZ11 VMA_IZ11     0 2 411.00     0.0     0.0  -447.8  -199.5  -148.9  -627.8   312.3  -287.7
VTMI2_11 VTMI2_11     0 2 411.00     0.0     0.0  -160.6   -42.0  -121.6  -418.2   181.5  -108.5
VALEKO21 VALEKO21     0 0 227.57    18.5    20.0     0.0     0.0     0.0     0.0     0.0     0.0
VHPESH21 VHPESH21     0 0 227.61     0.0     0.0     0.0     0.0    -4.2  -127.8    46.1   -78.9
VHORFE21 VHORFE21     0 0 227.72     0.0     0.0     0.0     0.0    44.3  -159.0    64.3   -55.7
VHDEVI21 VHDEVI21     0 0 227.68    -0.2     4.4     0.0     0.0     0.0     0.0     0.0     0.0
VHTESH21 VHTESH21     0 0 227.70     0.0     0.0     0.0     0.0   -11.8   -61.6    24.9   -25.1
VPLOVD21 VPLOVD21     0 0 227.02    42.7    16.6     0.0     0.0     0.0     0.0     0.0     0.0
VO_SHC21 VO_SHC21     0 0 226.01   -18.6     6.0     0.0     0.0     0.0     0.0     0.0     0.0
VO_RAD21 VO_RAD21     0 0 227.69     0.0     0.0     0.0     0.0     0.0     0.0     0.0     0.0
VPLOVD11 VPLOVD11     0 0 412.99   169.7    18.2     0.0     0.0     0.0     0.0     0.0     0.0
VVETRE11 VVETRE11     0 0 413.40     0.0     0.0     0.0     0.0     0.0     0.0     0.0     0.0
VPLEV151 VPLEV151     0 0 119.58    43.4    16.3     0.0     0.0     0.0     0.0     0.0     0.0
VMIZIA21 VMIZIA21     0 0 234.99    42.4   -12.4     0.0     0.0     0.0     0.0     0.0     0.0
VPLEV121 VPLEV121     0 0 233.03     0.0     0.0     0.0     0.0     0.0     0.0     0.0     0.0
VMIZIA11 VMIZIA11     0 0 412.79     0.0     0.0     0.0     0.0     0.0     0.0     0.0     0.0
VSOFIZ5Q VSOFIZ5Q     0 0 113.98     0.0     0.0     0.0     0.0     0.0     0.0     0.0     0.0
VBLAGO5Q VBLAGO5Q     0 0 117.78     0.0     0.0     0.0     0.0     0.0     0.0     0.0     0.0
VSTOLN2Q VSTOLN2Q     0 0 229.28     0.0     0.0     0.0     0.0     0.0     0.0     0.0     0.0
VSOFIZ1Q VSOFIZ1Q     0 0 407.70     0.0     0.0     0.0     0.0     0.0     0.0     0.0     0.0
VAECKO2Q VAECKO2Q     0 0 236.30     0.0     0.0     0.0     0.0     0.0     0.0     0.0     0.0
VCAREV5Q VCAREV5Q     0 0 117.74     0.0     0.0     0.0     0.0     0.0     0.0     0.0     0.0
VVARNA1Q VVARNA1Q     0 0 400.00     0.0     0.0     0.0     0.0     0.0     0.0     0.0     0.0
VBURGA5Q VBURGA5Q     0 0 115.46     0.0     0.0     0.0     0.0     0.0     0.0     0.0     0.0
VTMI3_2Q VTMI3_2Q     0 0 220.00     0.0     0.0     0.0     0.0     0.0     0.0     0.0     0.0
VMIZIA2Q VMIZIA2Q     0 0 220.00     0.0     0.0     0.0     0.0     0.0     0.0     0.0     0.0
VPLOVD1Q VPLOVD1Q     0 0 400.00     0.0     0.0     0.0     0.0     0.0     0.0     0.0     0.0
VCMOGL5Q VCMOGL5Q     0 0 111.62     0.0     0.0     0.0     0.0     0.0     0.0     0.0     0.0
##ZXX
XSO_NI11 XSO_NI11     1 0 408.34   203.4   -17.6     0.0     0.0     0.0     0.0     0.0     0.0
XKO_TI11 XKO_TI11     1 0 409.27    -9.2    88.3     0.0     0.0     0.0     0.0     0.0     0.0
XKO_TI12 XKO_TI12     1 0 409.27    -9.2    88.3     0.0     0.0     0.0     0.0     0.0     0.0
XDO_RA11 XDO_RA11     1 0 393.91   -10.6   127.3     0.0     0.0     0.0     0.0     0.0     0.0
XVA_ST11 XVA_ST11     1 0 395.84   -11.8   115.4     0.0     0.0     0.0     0.0     0.0     0.0
XBG_TH11 XBG_TH11     1 0 400.92    -3.0   105.8     0.0     0.0     0.0     0.0     0.0     0.0
XCM_ST11 XCM_ST11     1 0 408.92    82.8     5.3     0.0     0.0     0.0     0.0     0.0     0.0
XMI_HA11 XMI_HA11     1 0 400.66   422.7   108.1     0.0     0.0     0.0     0.0     0.0     0.0
XMI_HA12 XMI_HA12     1 0 401.59   522.0   121.9     0.0     0.0     0.0     0.0     0.0     0.0
##L
VSOFIZ11 XSO_NI11 1 0   1.97  20.27    211.0   1890 
VTMI3_11 XMI_HA11 1 0   2.51  25.69    282.0   1732 
VTMI3_11 XMI_HA12 1 0   1.67  20.67    298.0   1732 
VAECKO11 XKO_TI11 1 0   1.91  16.28    223.0   1601 
VAECKO11 XKO_TI12 1 0   1.91  16.28    223.0   1601 
VDOBRU11 XDO_RA11 1 0   2.12  25.82    339.0   2000 
VBLAGO11 XBG_TH11 1 0   2.77  29.61    307.0   1600 
VCMOGL11 XCM_ST11 1 0   2.30  24.61    261.0   1670 
VBELME21 VKAZIC21 1 0   4.27  25.82    185.0    945 
VBELME21 VKAZIC21 2 0   4.27  25.82    185.0    945 
VKAZIC21 VSF_YU21 1 0   1.04   6.48     42.0    945 
VKAZIC21 VSF_YU21 2 0   1.04   6.48     42.0    945 
VKAZIC21 VALEKO21 1 0   5.89  35.52    254.0    945 
VKAZIC21 VALEKO21 2 0   5.89  35.52    254.0    945 
VSF_YU21 VTBDOL21 1 0   3.71  22.56    160.0    945 
VSF_YU21 VTBDOL21 2 0   3.71  22.56    160.0    945 
VTSOF_21 VTBDOL21 1 0   5.64  34.52    216.0    945 
VTSOF_21 VSTOLN21 1 0   2.37  14.50     81.0    945 
VMETAL11 VSTOLN11 1 0   0.33   3.36     36.0   1888 
VMETAL11 VSOFIZ11 1 0   1.10  11.07    109.0   1888 
VSTOMA21 VTBDOL21 1 0   2.67  16.28    115.0    600 
VSTOMA21 VSTOLN21 1 0   5.00  30.54    211.0    600 
VSTOLN21 VKAZIC21 1 0   1.60   9.85     67.0    945 
VSTOLN21 VKAZIC21 2 0   1.60   9.85     67.0    945 
VSTOLN21 VHSEST21 1 0   4.46  27.32    192.0    799 
VSTOLN11 VMIZIA11 1 0   3.18  32.24    330.0   1888 
VSTOLN11 VZLATI11 1 0   1.45  15.88    160.0   1890 
VPLOVD11 VZLATI11 1 0   3.72  43.64    495.2   2000 
VSOFIZ11 VCMOGL11 1 0   1.35  13.61    166.0   1888 
VSOFIZ11 VCMOGL11 2 0   1.35  13.61    166.0   1888 
VSOFIZ11 VAECKO11 1 0   2.80  37.84    485.0   1998 
VSOFIZ11 VAECKO11 2 0   3.88  39.45    478.0   1888 
VSOFIZ11 VAECKO11 3 0   3.88  39.45    478.0   1888 
VCMOGL11 VBLAGO11 1 0   2.30  22.81    275.0   1888 
VCMOGL11 VBLAGO11 2 0   2.30  22.81    275.0   1888 
VCMOGL11 VVETRE11 1 0   1.83  26.96    343.0   2000 
VHCHAI11 VVETRE11 1 0   0.38   4.07     88.0    999 
VHCHAI12 VVETRE11 1 0   0.34   3.63     75.0    999 
VAECKO21 VBOICH21 1 0   3.31  20.96    139.0    945 
VAECKO21 VMIZIA21 1 0   2.22  20.70    253.0   1200 
VAECKO21 VMIZIA21 2 0   2.22  20.70    253.0   1200 
VAECKO11 VMIZIA11 1 0   2.18  22.62    270.8   1998 
VAECKO11 VMIZIA11 2 0   1.50  20.22    259.0   1888 
VAECKO11 VMIZIA11 3 0   2.19  22.62    270.8   1888 
VCAREV51 VO_DEK51 1 0   0.56   3.97     13.2    825 
VCAREV51 VO_POK51 1 0   0.51   2.72     20.7    800 
VCAREV51 VDRIAN51 1 0   1.18   6.10     47.0    800 
VCAREV51 VDRIAN51 2 0   1.18   6.10     47.0    800 
VKARTA51 VO_POK51 1 0   0.14   0.66      5.2    825 
VCALIV51 VGABRO51 1 0   0.47   2.49     74.0    800 
VDRIAN51 VCALIV51 1 0   0.72   3.82     28.0    800 
VDRIAN51 VGABRO51 1 0   1.19   6.31    102.0    800 
VBALKA51 VGABRO51 1 0   0.54   2.56     20.0    800 
VBALKA51 VGABRO51 2 0   0.54   2.56     20.0    800 
VBALKA52 VBALKA51 1 0   0.00   0.10      0.0    800 
VGORYA21 VBALKA21 1 8   4.70  19.20    118.0    600 
VGORYA21 VMADAR21 1 0   7.64  46.55    329.0    600 
VGORYA21 VTMI2_21 1 0   6.84  42.87    304.0    944 
VGORYA21 VO_SPT21 1 0   3.52  21.64    151.0    944 
VBALKA21 VO_SHC21 1 0   2.53  10.45     65.0    600 
VCAREV11 VVARNA11 1 0   5.81  58.55    562.5   1890 
VDOBRU51 VAGROP51 1 0   1.42   6.67     52.0    800 
VDOBRU51 VBELOS51 1 8   1.74   8.21     65.0    800 
VTVARN51 VAGROP51 1 0   0.71   3.34     26.0    800 
VBELOS51 VTVARN51 1 0   0.48   2.24     18.0    800 
VDOBRU21 VO_KAK21 1 8   5.68  36.36    246.0    599 
VDOBRU21 VVARNA21 1 0   0.49   3.30     23.0    945 
VMADAR21 VVARNA21 1 0   2.51  16.96    118.0    945 
VMADAR21 VDOBRU21 1 0   2.98  18.57    129.0    945 
VTVARN21 VDOBRU21 1 0   0.70   6.54     79.0   1890 
VTVARN21 VDOBRU21 2 0   0.70   6.54     79.0   1890 
VVARNA11 VBURGA11 1 0   2.91  29.35    289.0   1888 
VDOBRU11 VVARNA11 1 0   0.24   2.42     25.0   1890 
VTMI2_21 VTMI3_21 1 0   1.04   9.75    115.0   1890 
VTMI2_21 VO_KAK21 1 0   5.60  35.64    236.0    944 
VTMI2_21 VO_SPT21 1 0   3.17  20.47    142.0    944 
VMA_IZ21 VTMI2_21 1 0   2.51  16.28    108.0    945 
VMA_IZ21 VTMI2_21 2 0   2.52  15.99    107.0    945 
VMA_IZ21 VTMI3_21 1 0   0.41   3.83     44.0   1890 
VTMI2_11 VBURGA11 1 0   2.70  39.94    506.8   2000 
VTMI2_11 VTMI3_11 1 0   0.87  12.81    162.3   1998 
VALEKO21 VHPESH21 1 0   1.33   7.19     46.0    500 
VALEKO21 VHORFE21 1 0   1.76  10.70     75.0    799 
VALEKO21 VPLOVD21 1 0   3.67  16.30     99.0    824 
VALEKO21 VO_SHC21 1 0  10.71  43.66    275.0    600 
VHORFE21 VO_RAD21 1 0   2.32  11.69     79.0    609 
VHDEVI21 VO_RAD21 1 0   0.06   0.31      2.0    600 
VHTESH21 VO_RAD21 1 0   1.18   4.52     29.0    300 
VPLOVD21 VMA_IZ21 1 0   9.75  39.74    251.0    690 
VPLOVD21 VMA_IZ21 2 0   6.01  37.31    252.0    945 
VTMI3_11 VMA_IZ11 1 0   0.43   4.35     46.0   1888 
VPLOVD11 VMA_IZ11 1 0   3.05  31.01    346.0   1888 
VPLOVD11 VVETRE11 1 0   2.62  27.28    309.0   1888 
VMIZIA21 VBOICH21 1 0   4.77  30.48    207.0    600 
VMIZIA21 VPLEV121 1 0   2.76  16.80    118.0    945 
VMIZIA11 VCAREV11 1 0   4.18  42.10    478.0   1888 
VSOFIZ51 VSOFIZ5Q 1 0   0.00   0.05  -2718.0    236 
VSOFIZ51 VSOFIZ5Q 2 0   0.00   0.05  -2718.0    236 
VCMOGL51 VCMOGL5Q 1 8   0.00   0.05  -4132.0    315 
VCMOGL51 VCMOGL5Q 2 0   0.00   0.05  -4132.0    315 
VBLAGO51 VBLAGO5Q 1 0   0.00   0.05  -2718.0    262 
VBLAGO51 VBLAGO5Q 2 8   0.00   0.05  -2718.0    262 
VSTOLN21 VSTOLN2Q 1 0   0.00   0.05   -937.0    144 
VSTOLN21 VSTOLN2Q 2 0   0.00   0.05   -843.0    144 
VSTOLN21 VSTOLN2Q 3 0   0.00   0.05   -746.0    118 
VSOFIZ11 VSOFIZ1Q 1 0   0.00   0.05  -1134.0    289 
VAECKO21 VAECKO2Q 1 8   0.00   0.05   -768.0    118 
VAECKO21 VAECKO2Q 2 0   0.00   0.05   -768.0    118 
VAECKO21 VAECKO2Q 3 0   0.00   0.05   -768.0    118 
VCAREV51 VCAREV5Q 1 8   0.00   0.05  -2800.0    236 
VCAREV51 VCAREV5Q 2 0   0.00   0.05  -3551.0    262 
VVARNA11 VVARNA1Q 1 8   0.00   0.05  -1134.0    289 
VBURGA51 VBURGA5Q 1 0   0.00   0.05  -3074.0    236 
VBURGA51 VBURGA5Q 2 0   0.00   0.05  -3074.0    236 
VBURGA51 VBURGA5Q 3 8   0.00   0.05   3415.0    289 
VBURGA51 VBURGA5Q 4 8   0.00   0.05   3415.0    289 
VBURGA51 VBURGA5Q 5 8   0.00   0.05   3415.0    289 
VBURGA51 VBURGA5Q 6 8   0.00   0.05   3415.0    289 
VTMI3_21 VTMI3_2Q 1 8   0.00   0.05  -1033.0    157 
VTMI3_21 VTMI3_2Q 2 8   0.00   0.05  -1033.0    157 
VTMI3_21 VTMI3_2Q 3 8   0.00   0.05  -1033.0    157 
VMIZIA21 VMIZIA2Q 1 8   0.00   0.05   -768.0    118 
VMIZIA21 VMIZIA2Q 2 8   0.00   0.05   -768.0    118 
VMIZIA21 VMIZIA2Q 3 8   0.00   0.05   -768.0    118 
VPLOVD11 VPLOVD1Q 1 8   0.00   0.05   -313.0     87 
VPLOVD11 VPLOVD1Q 2 8   0.00   0.05   -313.0     87 
VVARNA11 XVA_ST11 1 0   1.47  21.56    298.0   2000 
VDOBRU11 VVARNA11 2 0   0.31   3.12     33.1   1890 
VO_DEK51 VKARTA51 1 0   0.14   1.02      3.4    825 
VO_DEK51 VGORYA51 1 0   0.56   3.97     13.2    825 
VO_POK51 VGORYA51 1 0   0.51   2.72     20.7    800 
VPLEV121 VMIZIA21 2 0   2.51  16.97    114.1    945 
VPLEV121 VGORYA21 1 0   6.33  39.69    275.3    945 
VTMI3_11 VMA_IZ11 2 0   0.31   3.31     52.3   2475 
VBURGA11 VMA_IZ11 1 0   4.80  45.60    564.4   2475 
VVARNA11 VBURGA11 2 0   2.18  24.93    345.8   2475 
VPLOVD11 VMA_IZ11 2 0   2.34  26.70    370.9   2475 
##T
VTBDOL21 VTBDOL51 1 0   230   121   200   0.55  35.76  -14.370  2.300    502
VSTOLN21 VSTOLN51 1 0   230   121   200   0.55  28.30  -13.230  2.300    502
VSTOLN11 VSTOLN51 1 0   400   121   250   1.52  83.20   -2.970  0.800    361
VSTOLN11 VSTOLN21 1 0   380   231   800   0.34  27.65  -38.781  1.773   1215
VSOFIZ11 VSOFIZ51 1 0   400   121   250   1.85 114.56   -2.970  0.000    361
VSOFIZ11 VSOFIZ51 2 0   400   121   250   1.85 115.20   -2.970  0.000    361
VBLAGO11 VBLAGO51 1 0   400   121   250   1.85 115.20   -2.970  0.000    361
VBLAGO11 VBLAGO51 2 0   400   121   250   1.85 115.20   -2.970  0.000    361
VAECKO11 VAECKO21 1 0   380   231   800   0.34  23.46  -38.780  1.800   1215
VGORYA21 VGORYA51 1 0   230   121   200   0.57  26.98  -12.100  2.500    502
VGORYA21 VGORYA51 2 8   230   121   200   0.57  26.37  -18.900  2.200    502
VBALKA21 VBALKA52 1 0   230   121   200   0.57  28.04   -8.320  2.300    502
VBALKA21 VBALKA51 1 8   230   121   200   0.60  26.71  -14.740  2.600    502
VCAREV11 VCAREV51 1 0   400   121   250   1.85 114.56   -2.970  0.000    361
VCAREV11 VCAREV51 2 8   400   121   250   1.85 114.56   -2.970  0.000    361
VDOBRU21 VDOBRU51 1 0   230   121   200   0.57  26.45  -12.850  2.400    502
VDOBRU21 VDOBRU51 2 0   230   121   200   0.57  27.24  -14.740  2.600    502
VTVARN21 VTVARN51 1 0   230   121   200   0.57  29.09  -15.120  2.300    502
VDOBRU11 VDOBRU51 2 0   400   121   250   1.41  69.11   -7.000  1.560    361
VDOBRU11 VDOBRU51 1 0   400   121   250   1.79 114.56   -9.380  0.800    361
VVARNA21 VVARNA11 1 0   219   400   630   0.16  19.58  -46.140  3.330   1661
VVARNA21 VVARNA11 2 8   219   400   630   0.16  19.58  -46.100  3.330   1661
VTMI2_21 VTMI2_51 1 0   230   121   200   0.61  26.71  -12.480  1.900    502
VMA_IZ11 VMA_IZ21 1 0   400   231   630   0.59  25.14   -4.300  1.500    909
VMA_IZ21 VMA_IZ51 1 0   230   121   200   0.62  28.04  -12.850  2.300    502
VMA_IZ21 VMA_IZ51 2 8   230   121   200   0.57  28.04  -18.900  2.300    502
VBURGA11 VBURGA51 1 0   400   121   250   1.85 113.92   -2.970  0.000    361
VBURGA11 VBURGA51 2 0   400   121   250   1.85 115.20   -2.970  0.000    361
VTMI3_11 VTMI3_21 1 0   400   231   800   0.48  20.00   -5.400  1.900   1155
VPLEV121 VPLEV151 1 0   230   121   200   0.56  26.98  -18.900  2.300    502
VPLEV121 VPLEV151 2 0   230   121   200   0.56  27.24  -18.900  2.300    502
VMIZIA11 VMIZIA21 1 0   400   231   800   0.35  25.00   -1.750  1.280   1155
VCMOGL11 VCMOGL51 1 8   400   121   250   1.85 112.64   -2.970  0.000    361
VCMOGL11 VCMOGL51 2 0   400   121   250   1.85 112.64   -2.970  0.000    361
##R
VTBDOL21 VTBDOL51 1  2.00  6  -1
VSTOLN21 VSTOLN51 1  2.00  6  -1
VSTOLN11 VSTOLN51 1  1.12  8  -3
VSTOLN11 VSTOLN21 1  1.28 11  -4
VSOFIZ11 VSOFIZ51 1  1.50  9  -2
VSOFIZ11 VSOFIZ51 2  1.50  9  -2
VBLAGO11 VBLAGO51 1  1.50  9  -2
VBLAGO11 VBLAGO51 2  1.50  9  -2
VAECKO11 VAECKO21 1                    1.278    60 11  -7       ASYM 
VGORYA21 VGORYA51 1  2.00  6   0
VGORYA21 VGORYA51 2  2.00  6   0
VBALKA21 VBALKA52 1  2.00  6   0
VBALKA21 VBALKA51 1  2.00  6   0
VCAREV11 VCAREV51 1  1.50  9  -1
VCAREV11 VCAREV51 2  1.50  9  -1
VDOBRU21 VDOBRU51 1  2.00  6   0
VDOBRU21 VDOBRU51 2  2.00  6   0
VTVARN21 VTVARN51 1  2.00  6   0
VDOBRU11 VDOBRU51 2  1.32  8  -3
VDOBRU11 VDOBRU51 1  1.50  9  -2
VVARNA21 VVARNA11 1  0.47 12 -12
VVARNA21 VVARNA11 2  0.47 12 -12
VTMI2_21 VTMI2_51 1  2.00  6   1
VMA_IZ11 VMA_IZ21 1                    1.340    60 13  -5       ASYM 
VMA_IZ21 VMA_IZ51 1  2.00  6   0
VMA_IZ21 VMA_IZ51 2  2.00  6   0
VBURGA11 VBURGA51 1  1.50  9  -1
VBURGA11 VBURGA51 2  1.50  9  -1
VTMI3_11 VTMI3_21 1                    1.277    60 11  -5       ASYM 
VPLEV121 VPLEV151 1  2.00  6  -1
VPLEV121 VPLEV151 2  2.00  6  -1
VMIZIA11 VMIZIA21 1                    1.277    60 11  -3       ASYM 
VCMOGL11 VCMOGL51 1  1.50  9  -2
VCMOGL11 VCMOGL51 2  1.50  9  -2
